%chk=D:\Wu Group Data\Gaussian\Benzene amine and Ph dicarbonyl OEt.chk
# hf/3-21g geom=connectivity

Title Card Required

0 1
 C                  2.36775645   -1.28694560   -0.09798176
 C                  3.68540080   -1.74012090   -0.24753938
 C                  4.74991079   -0.83041521   -0.19118352
 C                  4.49677635    0.53246597    0.01472864
 C                  3.17913191    0.98564147    0.16428483
 C                  2.11462204    0.07593550    0.10793091
 H                  1.55497958   -1.98152637   -0.14100864
 H                  3.87867443   -2.78071064   -0.40475994
 H                  5.75596155   -1.17642471   -0.30537331
 H                  5.30955344    1.22704629    0.05775878
 H                  2.98585807    2.02623166    0.32150210
 C                  0.66666119    0.57393040    0.27227950
 C                 -0.50312963   -0.42574699    0.21035575
 C                 -1.95109071    0.07224838    0.37470089
 C                 -4.19878960   -0.19935298   -0.19726856
 C                 -5.36858012   -1.19903099   -0.25918777
 H                 -3.99341459    0.17063910   -1.18003353
 H                 -4.46045617    0.61659172    0.44356282
 H                 -6.23764822   -0.70767571   -0.64414313
 H                 -5.10691355   -2.01497569   -0.90001915
 H                 -5.57395514   -1.56902307    0.72357719
 O                 -3.03732477   -0.85602406    0.31720449
 O                 -2.17839579    1.29606150    0.55959119
 O                 -0.27582474   -1.64955971    0.02546261
 O                  0.43935659    1.79774250    0.45717711

 1 2 1.5 6 1.5 7 1.0
 2 3 1.5 8 1.0
 3 4 1.5 9 1.0
 4 5 1.5 10 1.0
 5 6 1.5 11 1.0
 6 12 1.0
 7
 8
 9
 10
 11
 12 13 1.0 25 2.0
 13 14 1.0 24 2.0
 14 22 1.0 23 2.0
 15 16 1.0 17 1.0 18 1.0 22 1.0
 16 19 1.0 20 1.0 21 1.0
 17
 18
 19
 20
 21
 22
 23
 24
 25

